/*--------------------------------*- C++ -*----------------------------------*\ 
| =========                 |                                                 |
| \      /  F ield         | OpenFOAM: The Open Source CFD Toolbox           |
|  \    /   O peration     | Version:  v2212                                 |
|   \  /    A nd           | Website:  www.openfoam.com                      |
|    \/     M anipulation  |                                                 |
\*---------------------------------------------------------------------------*/
FoamFile
{
    version     2.0;
    format      ascii;
    class       vectorField;
    object      kinematicCloudPositions;
}
// * * * * * * * * * * * * * * * * * * * * * * * * * * * * * * * * * * * * * //

( 
(0.0	-0.01666666666666667	0.009375	)
(0.0	-0.01666666666666667	0.01875	)
(0.0	-0.01666666666666667	0.028124999999999997	)
(0.0	-0.01666666666666667	0.0375	)
(0.0	-0.01666666666666667	0.046875	)
(0.0	-0.01666666666666667	0.056249999999999994	)
(0.0	-0.01666666666666667	0.065625	)
(0.0	-0.01666666666666667	0.075	)
(0.0	-0.01666666666666667	0.08437499999999999	)
(0.0	-0.01666666666666667	0.09375	)
(0.0	-0.01666666666666667	0.103125	)
(0.0	-0.01666666666666667	0.11249999999999999	)
(0.0	-0.01666666666666667	0.121875	)
(0.0	-0.01666666666666667	0.13125	)
(0.0	-0.01666666666666667	0.140625	)
(0.0	-0.008333333333333335	0.009375	)
(0.0	-0.008333333333333335	0.01875	)
(0.0	-0.008333333333333335	0.028124999999999997	)
(0.0	-0.008333333333333335	0.0375	)
(0.0	-0.008333333333333335	0.046875	)
(0.0	-0.008333333333333335	0.056249999999999994	)
(0.0	-0.008333333333333335	0.065625	)
(0.0	-0.008333333333333335	0.075	)
(0.0	-0.008333333333333335	0.08437499999999999	)
(0.0	-0.008333333333333335	0.09375	)
(0.0	-0.008333333333333335	0.103125	)
(0.0	-0.008333333333333335	0.11249999999999999	)
(0.0	-0.008333333333333335	0.121875	)
(0.0	-0.008333333333333335	0.13125	)
(0.0	-0.008333333333333335	0.140625	)
(0.0	0.0	0.009375	)
(0.0	0.0	0.01875	)
(0.0	0.0	0.028124999999999997	)
(0.0	0.0	0.0375	)
(0.0	0.0	0.046875	)
(0.0	0.0	0.056249999999999994	)
(0.0	0.0	0.065625	)
(0.0	0.0	0.075	)
(0.0	0.0	0.08437499999999999	)
(0.0	0.0	0.09375	)
(0.0	0.0	0.103125	)
(0.0	0.0	0.11249999999999999	)
(0.0	0.0	0.121875	)
(0.0	0.0	0.13125	)
(0.0	0.0	0.140625	)
(0.0	0.008333333333333331	0.009375	)
(0.0	0.008333333333333331	0.01875	)
(0.0	0.008333333333333331	0.028124999999999997	)
(0.0	0.008333333333333331	0.0375	)
(0.0	0.008333333333333331	0.046875	)
(0.0	0.008333333333333331	0.056249999999999994	)
(0.0	0.008333333333333331	0.065625	)
(0.0	0.008333333333333331	0.075	)
(0.0	0.008333333333333331	0.08437499999999999	)
(0.0	0.008333333333333331	0.09375	)
(0.0	0.008333333333333331	0.103125	)
(0.0	0.008333333333333331	0.11249999999999999	)
(0.0	0.008333333333333331	0.121875	)
(0.0	0.008333333333333331	0.13125	)
(0.0	0.008333333333333331	0.140625	)
(0.0	0.016666666666666663	0.009375	)
(0.0	0.016666666666666663	0.01875	)
(0.0	0.016666666666666663	0.028124999999999997	)
(0.0	0.016666666666666663	0.0375	)
(0.0	0.016666666666666663	0.046875	)
(0.0	0.016666666666666663	0.056249999999999994	)
(0.0	0.016666666666666663	0.065625	)
(0.0	0.016666666666666663	0.075	)
(0.0	0.016666666666666663	0.08437499999999999	)
(0.0	0.016666666666666663	0.09375	)
(0.0	0.016666666666666663	0.103125	)
(0.0	0.016666666666666663	0.11249999999999999	)
(0.0	0.016666666666666663	0.121875	)
(0.0	0.016666666666666663	0.13125	)
(0.0	0.016666666666666663	0.140625	)
)

// ************************************************************************* //
