/*--------------------------------*- C++ -*----------------------------------*\ 
| =========                 |                                                 |
| \      /  F ield         | OpenFOAM: The Open Source CFD Toolbox           |
|  \    /   O peration     | Version:  v2212                                 |
|   \  /    A nd           | Website:  www.openfoam.com                      |
|    \/     M anipulation  |                                                 |
\*---------------------------------------------------------------------------*/
FoamFile
{
    version     2.0;
    format      ascii;
    class       vectorField;
    object      kinematicCloudPositions;
}
// * * * * * * * * * * * * * * * * * * * * * * * * * * * * * * * * * * * * * //

( 
(-0.005833333333333333	-0.023076923076923078	0.001935483870967742	)
(-0.005833333333333333	-0.023076923076923078	0.003870967741935484	)
(-0.005833333333333333	-0.023076923076923078	0.005806451612903225	)
(-0.005833333333333333	-0.023076923076923078	0.007741935483870968	)
(-0.005833333333333333	-0.023076923076923078	0.00967741935483871	)
(-0.005833333333333333	-0.023076923076923078	0.01161290322580645	)
(-0.005833333333333333	-0.023076923076923078	0.013548387096774193	)
(-0.005833333333333333	-0.023076923076923078	0.015483870967741935	)
(-0.005833333333333333	-0.023076923076923078	0.017419354838709676	)
(-0.005833333333333333	-0.023076923076923078	0.01935483870967742	)
(-0.005833333333333333	-0.023076923076923078	0.02129032258064516	)
(-0.005833333333333333	-0.023076923076923078	0.0232258064516129	)
(-0.005833333333333333	-0.023076923076923078	0.025161290322580646	)
(-0.005833333333333333	-0.023076923076923078	0.027096774193548386	)
(-0.005833333333333333	-0.023076923076923078	0.02903225806451613	)
(-0.005833333333333333	-0.023076923076923078	0.03096774193548387	)
(-0.005833333333333333	-0.023076923076923078	0.032903225806451615	)
(-0.005833333333333333	-0.023076923076923078	0.03483870967741935	)
(-0.005833333333333333	-0.023076923076923078	0.036774193548387096	)
(-0.005833333333333333	-0.023076923076923078	0.03870967741935484	)
(-0.005833333333333333	-0.023076923076923078	0.04064516129032258	)
(-0.005833333333333333	-0.023076923076923078	0.04258064516129032	)
(-0.005833333333333333	-0.023076923076923078	0.044516129032258066	)
(-0.005833333333333333	-0.023076923076923078	0.0464516129032258	)
(-0.005833333333333333	-0.023076923076923078	0.04838709677419355	)
(-0.005833333333333333	-0.023076923076923078	0.05032258064516129	)
(-0.005833333333333333	-0.023076923076923078	0.052258064516129035	)
(-0.005833333333333333	-0.023076923076923078	0.05419354838709677	)
(-0.005833333333333333	-0.023076923076923078	0.056129032258064517	)
(-0.005833333333333333	-0.023076923076923078	0.05806451612903226	)
(-0.005833333333333333	-0.021153846153846155	0.001935483870967742	)
(-0.005833333333333333	-0.021153846153846155	0.003870967741935484	)
(-0.005833333333333333	-0.021153846153846155	0.005806451612903225	)
(-0.005833333333333333	-0.021153846153846155	0.007741935483870968	)
(-0.005833333333333333	-0.021153846153846155	0.00967741935483871	)
(-0.005833333333333333	-0.021153846153846155	0.01161290322580645	)
(-0.005833333333333333	-0.021153846153846155	0.013548387096774193	)
(-0.005833333333333333	-0.021153846153846155	0.015483870967741935	)
(-0.005833333333333333	-0.021153846153846155	0.017419354838709676	)
(-0.005833333333333333	-0.021153846153846155	0.01935483870967742	)
(-0.005833333333333333	-0.021153846153846155	0.02129032258064516	)
(-0.005833333333333333	-0.021153846153846155	0.0232258064516129	)
(-0.005833333333333333	-0.021153846153846155	0.025161290322580646	)
(-0.005833333333333333	-0.021153846153846155	0.027096774193548386	)
(-0.005833333333333333	-0.021153846153846155	0.02903225806451613	)
(-0.005833333333333333	-0.021153846153846155	0.03096774193548387	)
(-0.005833333333333333	-0.021153846153846155	0.032903225806451615	)
(-0.005833333333333333	-0.021153846153846155	0.03483870967741935	)
(-0.005833333333333333	-0.021153846153846155	0.036774193548387096	)
(-0.005833333333333333	-0.021153846153846155	0.03870967741935484	)
(-0.005833333333333333	-0.021153846153846155	0.04064516129032258	)
(-0.005833333333333333	-0.021153846153846155	0.04258064516129032	)
(-0.005833333333333333	-0.021153846153846155	0.044516129032258066	)
(-0.005833333333333333	-0.021153846153846155	0.0464516129032258	)
(-0.005833333333333333	-0.021153846153846155	0.04838709677419355	)
(-0.005833333333333333	-0.021153846153846155	0.05032258064516129	)
(-0.005833333333333333	-0.021153846153846155	0.052258064516129035	)
(-0.005833333333333333	-0.021153846153846155	0.05419354838709677	)
(-0.005833333333333333	-0.021153846153846155	0.056129032258064517	)
(-0.005833333333333333	-0.021153846153846155	0.05806451612903226	)
(-0.005833333333333333	-0.019230769230769232	0.001935483870967742	)
(-0.005833333333333333	-0.019230769230769232	0.003870967741935484	)
(-0.005833333333333333	-0.019230769230769232	0.005806451612903225	)
(-0.005833333333333333	-0.019230769230769232	0.007741935483870968	)
(-0.005833333333333333	-0.019230769230769232	0.00967741935483871	)
(-0.005833333333333333	-0.019230769230769232	0.01161290322580645	)
(-0.005833333333333333	-0.019230769230769232	0.013548387096774193	)
(-0.005833333333333333	-0.019230769230769232	0.015483870967741935	)
(-0.005833333333333333	-0.019230769230769232	0.017419354838709676	)
(-0.005833333333333333	-0.019230769230769232	0.01935483870967742	)
(-0.005833333333333333	-0.019230769230769232	0.02129032258064516	)
(-0.005833333333333333	-0.019230769230769232	0.0232258064516129	)
(-0.005833333333333333	-0.019230769230769232	0.025161290322580646	)
(-0.005833333333333333	-0.019230769230769232	0.027096774193548386	)
(-0.005833333333333333	-0.019230769230769232	0.02903225806451613	)
(-0.005833333333333333	-0.019230769230769232	0.03096774193548387	)
(-0.005833333333333333	-0.019230769230769232	0.032903225806451615	)
(-0.005833333333333333	-0.019230769230769232	0.03483870967741935	)
(-0.005833333333333333	-0.019230769230769232	0.036774193548387096	)
(-0.005833333333333333	-0.019230769230769232	0.03870967741935484	)
(-0.005833333333333333	-0.019230769230769232	0.04064516129032258	)
(-0.005833333333333333	-0.019230769230769232	0.04258064516129032	)
(-0.005833333333333333	-0.019230769230769232	0.044516129032258066	)
(-0.005833333333333333	-0.019230769230769232	0.0464516129032258	)
(-0.005833333333333333	-0.019230769230769232	0.04838709677419355	)
(-0.005833333333333333	-0.019230769230769232	0.05032258064516129	)
(-0.005833333333333333	-0.019230769230769232	0.052258064516129035	)
(-0.005833333333333333	-0.019230769230769232	0.05419354838709677	)
(-0.005833333333333333	-0.019230769230769232	0.056129032258064517	)
(-0.005833333333333333	-0.019230769230769232	0.05806451612903226	)
(-0.005833333333333333	-0.01730769230769231	0.001935483870967742	)
(-0.005833333333333333	-0.01730769230769231	0.003870967741935484	)
(-0.005833333333333333	-0.01730769230769231	0.005806451612903225	)
(-0.005833333333333333	-0.01730769230769231	0.007741935483870968	)
(-0.005833333333333333	-0.01730769230769231	0.00967741935483871	)
(-0.005833333333333333	-0.01730769230769231	0.01161290322580645	)
(-0.005833333333333333	-0.01730769230769231	0.013548387096774193	)
(-0.005833333333333333	-0.01730769230769231	0.015483870967741935	)
(-0.005833333333333333	-0.01730769230769231	0.017419354838709676	)
(-0.005833333333333333	-0.01730769230769231	0.01935483870967742	)
(-0.005833333333333333	-0.01730769230769231	0.02129032258064516	)
(-0.005833333333333333	-0.01730769230769231	0.0232258064516129	)
(-0.005833333333333333	-0.01730769230769231	0.025161290322580646	)
(-0.005833333333333333	-0.01730769230769231	0.027096774193548386	)
(-0.005833333333333333	-0.01730769230769231	0.02903225806451613	)
(-0.005833333333333333	-0.01730769230769231	0.03096774193548387	)
(-0.005833333333333333	-0.01730769230769231	0.032903225806451615	)
(-0.005833333333333333	-0.01730769230769231	0.03483870967741935	)
(-0.005833333333333333	-0.01730769230769231	0.036774193548387096	)
(-0.005833333333333333	-0.01730769230769231	0.03870967741935484	)
(-0.005833333333333333	-0.01730769230769231	0.04064516129032258	)
(-0.005833333333333333	-0.01730769230769231	0.04258064516129032	)
(-0.005833333333333333	-0.01730769230769231	0.044516129032258066	)
(-0.005833333333333333	-0.01730769230769231	0.0464516129032258	)
(-0.005833333333333333	-0.01730769230769231	0.04838709677419355	)
(-0.005833333333333333	-0.01730769230769231	0.05032258064516129	)
(-0.005833333333333333	-0.01730769230769231	0.052258064516129035	)
(-0.005833333333333333	-0.01730769230769231	0.05419354838709677	)
(-0.005833333333333333	-0.01730769230769231	0.056129032258064517	)
(-0.005833333333333333	-0.01730769230769231	0.05806451612903226	)
(-0.005833333333333333	-0.015384615384615385	0.001935483870967742	)
(-0.005833333333333333	-0.015384615384615385	0.003870967741935484	)
(-0.005833333333333333	-0.015384615384615385	0.005806451612903225	)
(-0.005833333333333333	-0.015384615384615385	0.007741935483870968	)
(-0.005833333333333333	-0.015384615384615385	0.00967741935483871	)
(-0.005833333333333333	-0.015384615384615385	0.01161290322580645	)
(-0.005833333333333333	-0.015384615384615385	0.013548387096774193	)
(-0.005833333333333333	-0.015384615384615385	0.015483870967741935	)
(-0.005833333333333333	-0.015384615384615385	0.017419354838709676	)
(-0.005833333333333333	-0.015384615384615385	0.01935483870967742	)
(-0.005833333333333333	-0.015384615384615385	0.02129032258064516	)
(-0.005833333333333333	-0.015384615384615385	0.0232258064516129	)
(-0.005833333333333333	-0.015384615384615385	0.025161290322580646	)
(-0.005833333333333333	-0.015384615384615385	0.027096774193548386	)
(-0.005833333333333333	-0.015384615384615385	0.02903225806451613	)
(-0.005833333333333333	-0.015384615384615385	0.03096774193548387	)
(-0.005833333333333333	-0.015384615384615385	0.032903225806451615	)
(-0.005833333333333333	-0.015384615384615385	0.03483870967741935	)
(-0.005833333333333333	-0.015384615384615385	0.036774193548387096	)
(-0.005833333333333333	-0.015384615384615385	0.03870967741935484	)
(-0.005833333333333333	-0.015384615384615385	0.04064516129032258	)
(-0.005833333333333333	-0.015384615384615385	0.04258064516129032	)
(-0.005833333333333333	-0.015384615384615385	0.044516129032258066	)
(-0.005833333333333333	-0.015384615384615385	0.0464516129032258	)
(-0.005833333333333333	-0.015384615384615385	0.04838709677419355	)
(-0.005833333333333333	-0.015384615384615385	0.05032258064516129	)
(-0.005833333333333333	-0.015384615384615385	0.052258064516129035	)
(-0.005833333333333333	-0.015384615384615385	0.05419354838709677	)
(-0.005833333333333333	-0.015384615384615385	0.056129032258064517	)
(-0.005833333333333333	-0.015384615384615385	0.05806451612903226	)
(-0.005833333333333333	-0.013461538461538462	0.001935483870967742	)
(-0.005833333333333333	-0.013461538461538462	0.003870967741935484	)
(-0.005833333333333333	-0.013461538461538462	0.005806451612903225	)
(-0.005833333333333333	-0.013461538461538462	0.007741935483870968	)
(-0.005833333333333333	-0.013461538461538462	0.00967741935483871	)
(-0.005833333333333333	-0.013461538461538462	0.01161290322580645	)
(-0.005833333333333333	-0.013461538461538462	0.013548387096774193	)
(-0.005833333333333333	-0.013461538461538462	0.015483870967741935	)
(-0.005833333333333333	-0.013461538461538462	0.017419354838709676	)
(-0.005833333333333333	-0.013461538461538462	0.01935483870967742	)
(-0.005833333333333333	-0.013461538461538462	0.02129032258064516	)
(-0.005833333333333333	-0.013461538461538462	0.0232258064516129	)
(-0.005833333333333333	-0.013461538461538462	0.025161290322580646	)
(-0.005833333333333333	-0.013461538461538462	0.027096774193548386	)
(-0.005833333333333333	-0.013461538461538462	0.02903225806451613	)
(-0.005833333333333333	-0.013461538461538462	0.03096774193548387	)
(-0.005833333333333333	-0.013461538461538462	0.032903225806451615	)
(-0.005833333333333333	-0.013461538461538462	0.03483870967741935	)
(-0.005833333333333333	-0.013461538461538462	0.036774193548387096	)
(-0.005833333333333333	-0.013461538461538462	0.03870967741935484	)
(-0.005833333333333333	-0.013461538461538462	0.04064516129032258	)
(-0.005833333333333333	-0.013461538461538462	0.04258064516129032	)
(-0.005833333333333333	-0.013461538461538462	0.044516129032258066	)
(-0.005833333333333333	-0.013461538461538462	0.0464516129032258	)
(-0.005833333333333333	-0.013461538461538462	0.04838709677419355	)
(-0.005833333333333333	-0.013461538461538462	0.05032258064516129	)
(-0.005833333333333333	-0.013461538461538462	0.052258064516129035	)
(-0.005833333333333333	-0.013461538461538462	0.05419354838709677	)
(-0.005833333333333333	-0.013461538461538462	0.056129032258064517	)
(-0.005833333333333333	-0.013461538461538462	0.05806451612903226	)
(-0.005833333333333333	-0.011538461538461539	0.001935483870967742	)
(-0.005833333333333333	-0.011538461538461539	0.003870967741935484	)
(-0.005833333333333333	-0.011538461538461539	0.005806451612903225	)
(-0.005833333333333333	-0.011538461538461539	0.007741935483870968	)
(-0.005833333333333333	-0.011538461538461539	0.00967741935483871	)
(-0.005833333333333333	-0.011538461538461539	0.01161290322580645	)
(-0.005833333333333333	-0.011538461538461539	0.013548387096774193	)
(-0.005833333333333333	-0.011538461538461539	0.015483870967741935	)
(-0.005833333333333333	-0.011538461538461539	0.017419354838709676	)
(-0.005833333333333333	-0.011538461538461539	0.01935483870967742	)
(-0.005833333333333333	-0.011538461538461539	0.02129032258064516	)
(-0.005833333333333333	-0.011538461538461539	0.0232258064516129	)
(-0.005833333333333333	-0.011538461538461539	0.025161290322580646	)
(-0.005833333333333333	-0.011538461538461539	0.027096774193548386	)
(-0.005833333333333333	-0.011538461538461539	0.02903225806451613	)
(-0.005833333333333333	-0.011538461538461539	0.03096774193548387	)
(-0.005833333333333333	-0.011538461538461539	0.032903225806451615	)
(-0.005833333333333333	-0.011538461538461539	0.03483870967741935	)
(-0.005833333333333333	-0.011538461538461539	0.036774193548387096	)
(-0.005833333333333333	-0.011538461538461539	0.03870967741935484	)
(-0.005833333333333333	-0.011538461538461539	0.04064516129032258	)
(-0.005833333333333333	-0.011538461538461539	0.04258064516129032	)
(-0.005833333333333333	-0.011538461538461539	0.044516129032258066	)
(-0.005833333333333333	-0.011538461538461539	0.0464516129032258	)
(-0.005833333333333333	-0.011538461538461539	0.04838709677419355	)
(-0.005833333333333333	-0.011538461538461539	0.05032258064516129	)
(-0.005833333333333333	-0.011538461538461539	0.052258064516129035	)
(-0.005833333333333333	-0.011538461538461539	0.05419354838709677	)
(-0.005833333333333333	-0.011538461538461539	0.056129032258064517	)
(-0.005833333333333333	-0.011538461538461539	0.05806451612903226	)
(-0.005833333333333333	-0.009615384615384616	0.001935483870967742	)
(-0.005833333333333333	-0.009615384615384616	0.003870967741935484	)
(-0.005833333333333333	-0.009615384615384616	0.005806451612903225	)
(-0.005833333333333333	-0.009615384615384616	0.007741935483870968	)
(-0.005833333333333333	-0.009615384615384616	0.00967741935483871	)
(-0.005833333333333333	-0.009615384615384616	0.01161290322580645	)
(-0.005833333333333333	-0.009615384615384616	0.013548387096774193	)
(-0.005833333333333333	-0.009615384615384616	0.015483870967741935	)
(-0.005833333333333333	-0.009615384615384616	0.017419354838709676	)
(-0.005833333333333333	-0.009615384615384616	0.01935483870967742	)
(-0.005833333333333333	-0.009615384615384616	0.02129032258064516	)
(-0.005833333333333333	-0.009615384615384616	0.0232258064516129	)
(-0.005833333333333333	-0.009615384615384616	0.025161290322580646	)
(-0.005833333333333333	-0.009615384615384616	0.027096774193548386	)
(-0.005833333333333333	-0.009615384615384616	0.02903225806451613	)
(-0.005833333333333333	-0.009615384615384616	0.03096774193548387	)
(-0.005833333333333333	-0.009615384615384616	0.032903225806451615	)
(-0.005833333333333333	-0.009615384615384616	0.03483870967741935	)
(-0.005833333333333333	-0.009615384615384616	0.036774193548387096	)
(-0.005833333333333333	-0.009615384615384616	0.03870967741935484	)
(-0.005833333333333333	-0.009615384615384616	0.04064516129032258	)
(-0.005833333333333333	-0.009615384615384616	0.04258064516129032	)
(-0.005833333333333333	-0.009615384615384616	0.044516129032258066	)
(-0.005833333333333333	-0.009615384615384616	0.0464516129032258	)
(-0.005833333333333333	-0.009615384615384616	0.04838709677419355	)
(-0.005833333333333333	-0.009615384615384616	0.05032258064516129	)
(-0.005833333333333333	-0.009615384615384616	0.052258064516129035	)
(-0.005833333333333333	-0.009615384615384616	0.05419354838709677	)
(-0.005833333333333333	-0.009615384615384616	0.056129032258064517	)
(-0.005833333333333333	-0.009615384615384616	0.05806451612903226	)
(-0.005833333333333333	-0.007692307692307693	0.001935483870967742	)
(-0.005833333333333333	-0.007692307692307693	0.003870967741935484	)
(-0.005833333333333333	-0.007692307692307693	0.005806451612903225	)
(-0.005833333333333333	-0.007692307692307693	0.007741935483870968	)
(-0.005833333333333333	-0.007692307692307693	0.00967741935483871	)
(-0.005833333333333333	-0.007692307692307693	0.01161290322580645	)
(-0.005833333333333333	-0.007692307692307693	0.013548387096774193	)
(-0.005833333333333333	-0.007692307692307693	0.015483870967741935	)
(-0.005833333333333333	-0.007692307692307693	0.017419354838709676	)
(-0.005833333333333333	-0.007692307692307693	0.01935483870967742	)
(-0.005833333333333333	-0.007692307692307693	0.02129032258064516	)
(-0.005833333333333333	-0.007692307692307693	0.0232258064516129	)
(-0.005833333333333333	-0.007692307692307693	0.025161290322580646	)
(-0.005833333333333333	-0.007692307692307693	0.027096774193548386	)
(-0.005833333333333333	-0.007692307692307693	0.02903225806451613	)
(-0.005833333333333333	-0.007692307692307693	0.03096774193548387	)
(-0.005833333333333333	-0.007692307692307693	0.032903225806451615	)
(-0.005833333333333333	-0.007692307692307693	0.03483870967741935	)
(-0.005833333333333333	-0.007692307692307693	0.036774193548387096	)
(-0.005833333333333333	-0.007692307692307693	0.03870967741935484	)
(-0.005833333333333333	-0.007692307692307693	0.04064516129032258	)
(-0.005833333333333333	-0.007692307692307693	0.04258064516129032	)
(-0.005833333333333333	-0.007692307692307693	0.044516129032258066	)
(-0.005833333333333333	-0.007692307692307693	0.0464516129032258	)
(-0.005833333333333333	-0.007692307692307693	0.04838709677419355	)
(-0.005833333333333333	-0.007692307692307693	0.05032258064516129	)
(-0.005833333333333333	-0.007692307692307693	0.052258064516129035	)
(-0.005833333333333333	-0.007692307692307693	0.05419354838709677	)
(-0.005833333333333333	-0.007692307692307693	0.056129032258064517	)
(-0.005833333333333333	-0.007692307692307693	0.05806451612903226	)
(-0.005833333333333333	-0.0057692307692307696	0.001935483870967742	)
(-0.005833333333333333	-0.0057692307692307696	0.003870967741935484	)
(-0.005833333333333333	-0.0057692307692307696	0.005806451612903225	)
(-0.005833333333333333	-0.0057692307692307696	0.007741935483870968	)
(-0.005833333333333333	-0.0057692307692307696	0.00967741935483871	)
(-0.005833333333333333	-0.0057692307692307696	0.01161290322580645	)
(-0.005833333333333333	-0.0057692307692307696	0.013548387096774193	)
(-0.005833333333333333	-0.0057692307692307696	0.015483870967741935	)
(-0.005833333333333333	-0.0057692307692307696	0.017419354838709676	)
(-0.005833333333333333	-0.0057692307692307696	0.01935483870967742	)
(-0.005833333333333333	-0.0057692307692307696	0.02129032258064516	)
(-0.005833333333333333	-0.0057692307692307696	0.0232258064516129	)
(-0.005833333333333333	-0.0057692307692307696	0.025161290322580646	)
(-0.005833333333333333	-0.0057692307692307696	0.027096774193548386	)
(-0.005833333333333333	-0.0057692307692307696	0.02903225806451613	)
(-0.005833333333333333	-0.0057692307692307696	0.03096774193548387	)
(-0.005833333333333333	-0.0057692307692307696	0.032903225806451615	)
(-0.005833333333333333	-0.0057692307692307696	0.03483870967741935	)
(-0.005833333333333333	-0.0057692307692307696	0.036774193548387096	)
(-0.005833333333333333	-0.0057692307692307696	0.03870967741935484	)
(-0.005833333333333333	-0.0057692307692307696	0.04064516129032258	)
(-0.005833333333333333	-0.0057692307692307696	0.04258064516129032	)
(-0.005833333333333333	-0.0057692307692307696	0.044516129032258066	)
(-0.005833333333333333	-0.0057692307692307696	0.0464516129032258	)
(-0.005833333333333333	-0.0057692307692307696	0.04838709677419355	)
(-0.005833333333333333	-0.0057692307692307696	0.05032258064516129	)
(-0.005833333333333333	-0.0057692307692307696	0.052258064516129035	)
(-0.005833333333333333	-0.0057692307692307696	0.05419354838709677	)
(-0.005833333333333333	-0.0057692307692307696	0.056129032258064517	)
(-0.005833333333333333	-0.0057692307692307696	0.05806451612903226	)
(-0.005833333333333333	-0.0038461538461538464	0.001935483870967742	)
(-0.005833333333333333	-0.0038461538461538464	0.003870967741935484	)
(-0.005833333333333333	-0.0038461538461538464	0.005806451612903225	)
(-0.005833333333333333	-0.0038461538461538464	0.007741935483870968	)
(-0.005833333333333333	-0.0038461538461538464	0.00967741935483871	)
(-0.005833333333333333	-0.0038461538461538464	0.01161290322580645	)
(-0.005833333333333333	-0.0038461538461538464	0.013548387096774193	)
(-0.005833333333333333	-0.0038461538461538464	0.015483870967741935	)
(-0.005833333333333333	-0.0038461538461538464	0.017419354838709676	)
(-0.005833333333333333	-0.0038461538461538464	0.01935483870967742	)
(-0.005833333333333333	-0.0038461538461538464	0.02129032258064516	)
(-0.005833333333333333	-0.0038461538461538464	0.0232258064516129	)
(-0.005833333333333333	-0.0038461538461538464	0.025161290322580646	)
(-0.005833333333333333	-0.0038461538461538464	0.027096774193548386	)
(-0.005833333333333333	-0.0038461538461538464	0.02903225806451613	)
(-0.005833333333333333	-0.0038461538461538464	0.03096774193548387	)
(-0.005833333333333333	-0.0038461538461538464	0.032903225806451615	)
(-0.005833333333333333	-0.0038461538461538464	0.03483870967741935	)
(-0.005833333333333333	-0.0038461538461538464	0.036774193548387096	)
(-0.005833333333333333	-0.0038461538461538464	0.03870967741935484	)
(-0.005833333333333333	-0.0038461538461538464	0.04064516129032258	)
(-0.005833333333333333	-0.0038461538461538464	0.04258064516129032	)
(-0.005833333333333333	-0.0038461538461538464	0.044516129032258066	)
(-0.005833333333333333	-0.0038461538461538464	0.0464516129032258	)
(-0.005833333333333333	-0.0038461538461538464	0.04838709677419355	)
(-0.005833333333333333	-0.0038461538461538464	0.05032258064516129	)
(-0.005833333333333333	-0.0038461538461538464	0.052258064516129035	)
(-0.005833333333333333	-0.0038461538461538464	0.05419354838709677	)
(-0.005833333333333333	-0.0038461538461538464	0.056129032258064517	)
(-0.005833333333333333	-0.0038461538461538464	0.05806451612903226	)
(-0.005833333333333333	-0.0019230769230769232	0.001935483870967742	)
(-0.005833333333333333	-0.0019230769230769232	0.003870967741935484	)
(-0.005833333333333333	-0.0019230769230769232	0.005806451612903225	)
(-0.005833333333333333	-0.0019230769230769232	0.007741935483870968	)
(-0.005833333333333333	-0.0019230769230769232	0.00967741935483871	)
(-0.005833333333333333	-0.0019230769230769232	0.01161290322580645	)
(-0.005833333333333333	-0.0019230769230769232	0.013548387096774193	)
(-0.005833333333333333	-0.0019230769230769232	0.015483870967741935	)
(-0.005833333333333333	-0.0019230769230769232	0.017419354838709676	)
(-0.005833333333333333	-0.0019230769230769232	0.01935483870967742	)
(-0.005833333333333333	-0.0019230769230769232	0.02129032258064516	)
(-0.005833333333333333	-0.0019230769230769232	0.0232258064516129	)
(-0.005833333333333333	-0.0019230769230769232	0.025161290322580646	)
(-0.005833333333333333	-0.0019230769230769232	0.027096774193548386	)
(-0.005833333333333333	-0.0019230769230769232	0.02903225806451613	)
(-0.005833333333333333	-0.0019230769230769232	0.03096774193548387	)
(-0.005833333333333333	-0.0019230769230769232	0.032903225806451615	)
(-0.005833333333333333	-0.0019230769230769232	0.03483870967741935	)
(-0.005833333333333333	-0.0019230769230769232	0.036774193548387096	)
(-0.005833333333333333	-0.0019230769230769232	0.03870967741935484	)
(-0.005833333333333333	-0.0019230769230769232	0.04064516129032258	)
(-0.005833333333333333	-0.0019230769230769232	0.04258064516129032	)
(-0.005833333333333333	-0.0019230769230769232	0.044516129032258066	)
(-0.005833333333333333	-0.0019230769230769232	0.0464516129032258	)
(-0.005833333333333333	-0.0019230769230769232	0.04838709677419355	)
(-0.005833333333333333	-0.0019230769230769232	0.05032258064516129	)
(-0.005833333333333333	-0.0019230769230769232	0.052258064516129035	)
(-0.005833333333333333	-0.0019230769230769232	0.05419354838709677	)
(-0.005833333333333333	-0.0019230769230769232	0.056129032258064517	)
(-0.005833333333333333	-0.0019230769230769232	0.05806451612903226	)
(-0.005833333333333333	0.0	0.001935483870967742	)
(-0.005833333333333333	0.0	0.003870967741935484	)
(-0.005833333333333333	0.0	0.005806451612903225	)
(-0.005833333333333333	0.0	0.007741935483870968	)
(-0.005833333333333333	0.0	0.00967741935483871	)
(-0.005833333333333333	0.0	0.01161290322580645	)
(-0.005833333333333333	0.0	0.013548387096774193	)
(-0.005833333333333333	0.0	0.015483870967741935	)
(-0.005833333333333333	0.0	0.017419354838709676	)
(-0.005833333333333333	0.0	0.01935483870967742	)
(-0.005833333333333333	0.0	0.02129032258064516	)
(-0.005833333333333333	0.0	0.0232258064516129	)
(-0.005833333333333333	0.0	0.025161290322580646	)
(-0.005833333333333333	0.0	0.027096774193548386	)
(-0.005833333333333333	0.0	0.02903225806451613	)
(-0.005833333333333333	0.0	0.03096774193548387	)
(-0.005833333333333333	0.0	0.032903225806451615	)
(-0.005833333333333333	0.0	0.03483870967741935	)
(-0.005833333333333333	0.0	0.036774193548387096	)
(-0.005833333333333333	0.0	0.03870967741935484	)
(-0.005833333333333333	0.0	0.04064516129032258	)
(-0.005833333333333333	0.0	0.04258064516129032	)
(-0.005833333333333333	0.0	0.044516129032258066	)
(-0.005833333333333333	0.0	0.0464516129032258	)
(-0.005833333333333333	0.0	0.04838709677419355	)
(-0.005833333333333333	0.0	0.05032258064516129	)
(-0.005833333333333333	0.0	0.052258064516129035	)
(-0.005833333333333333	0.0	0.05419354838709677	)
(-0.005833333333333333	0.0	0.056129032258064517	)
(-0.005833333333333333	0.0	0.05806451612903226	)
(-0.005833333333333333	0.0019230769230769232	0.001935483870967742	)
(-0.005833333333333333	0.0019230769230769232	0.003870967741935484	)
(-0.005833333333333333	0.0019230769230769232	0.005806451612903225	)
(-0.005833333333333333	0.0019230769230769232	0.007741935483870968	)
(-0.005833333333333333	0.0019230769230769232	0.00967741935483871	)
(-0.005833333333333333	0.0019230769230769232	0.01161290322580645	)
(-0.005833333333333333	0.0019230769230769232	0.013548387096774193	)
(-0.005833333333333333	0.0019230769230769232	0.015483870967741935	)
(-0.005833333333333333	0.0019230769230769232	0.017419354838709676	)
(-0.005833333333333333	0.0019230769230769232	0.01935483870967742	)
(-0.005833333333333333	0.0019230769230769232	0.02129032258064516	)
(-0.005833333333333333	0.0019230769230769232	0.0232258064516129	)
(-0.005833333333333333	0.0019230769230769232	0.025161290322580646	)
(-0.005833333333333333	0.0019230769230769232	0.027096774193548386	)
(-0.005833333333333333	0.0019230769230769232	0.02903225806451613	)
(-0.005833333333333333	0.0019230769230769232	0.03096774193548387	)
(-0.005833333333333333	0.0019230769230769232	0.032903225806451615	)
(-0.005833333333333333	0.0019230769230769232	0.03483870967741935	)
(-0.005833333333333333	0.0019230769230769232	0.036774193548387096	)
(-0.005833333333333333	0.0019230769230769232	0.03870967741935484	)
(-0.005833333333333333	0.0019230769230769232	0.04064516129032258	)
(-0.005833333333333333	0.0019230769230769232	0.04258064516129032	)
(-0.005833333333333333	0.0019230769230769232	0.044516129032258066	)
(-0.005833333333333333	0.0019230769230769232	0.0464516129032258	)
(-0.005833333333333333	0.0019230769230769232	0.04838709677419355	)
(-0.005833333333333333	0.0019230769230769232	0.05032258064516129	)
(-0.005833333333333333	0.0019230769230769232	0.052258064516129035	)
(-0.005833333333333333	0.0019230769230769232	0.05419354838709677	)
(-0.005833333333333333	0.0019230769230769232	0.056129032258064517	)
(-0.005833333333333333	0.0019230769230769232	0.05806451612903226	)
(-0.005833333333333333	0.0038461538461538464	0.001935483870967742	)
(-0.005833333333333333	0.0038461538461538464	0.003870967741935484	)
(-0.005833333333333333	0.0038461538461538464	0.005806451612903225	)
(-0.005833333333333333	0.0038461538461538464	0.007741935483870968	)
(-0.005833333333333333	0.0038461538461538464	0.00967741935483871	)
(-0.005833333333333333	0.0038461538461538464	0.01161290322580645	)
(-0.005833333333333333	0.0038461538461538464	0.013548387096774193	)
(-0.005833333333333333	0.0038461538461538464	0.015483870967741935	)
(-0.005833333333333333	0.0038461538461538464	0.017419354838709676	)
(-0.005833333333333333	0.0038461538461538464	0.01935483870967742	)
(-0.005833333333333333	0.0038461538461538464	0.02129032258064516	)
(-0.005833333333333333	0.0038461538461538464	0.0232258064516129	)
(-0.005833333333333333	0.0038461538461538464	0.025161290322580646	)
(-0.005833333333333333	0.0038461538461538464	0.027096774193548386	)
(-0.005833333333333333	0.0038461538461538464	0.02903225806451613	)
(-0.005833333333333333	0.0038461538461538464	0.03096774193548387	)
(-0.005833333333333333	0.0038461538461538464	0.032903225806451615	)
(-0.005833333333333333	0.0038461538461538464	0.03483870967741935	)
(-0.005833333333333333	0.0038461538461538464	0.036774193548387096	)
(-0.005833333333333333	0.0038461538461538464	0.03870967741935484	)